!B3LYP D3BJ def2-TZVP OPT FREQ

*xyz 0 1
  C      -4.025088     -1.059059     -0.000002
  C      -2.645247     -1.267202      0.000012
  C      -1.766440     -0.173756      0.000013
  C      -2.278949      1.137220      0.000006
  C      -3.655443      1.337875     -0.000007
  C      -4.532456      0.243059     -0.000011
  C       2.278952     -1.137222      0.000002
  C       1.766440      0.173753      0.000010
  C       2.645243      1.267201      0.000007
  H       2.216463      2.271199      0.000013
  C       4.025086      1.059062     -0.000001
  C       4.532457     -0.243055     -0.000010
  C       3.655446     -1.337874     -0.000009
  H      -4.706468     -1.913138     -0.000006
  H      -2.216468     -2.271202      0.000017
  H      -4.055145      2.355150     -0.000017
  H      -5.612601      0.408477     -0.000024
  H       4.706463      1.913143     -0.000004
  H       5.612602     -0.408472     -0.000019
  H       4.055148     -2.355149     -0.000016
  H      -1.576701      1.971177      0.000005
  H       1.576704     -1.971180      0.000002
  N      -0.389377     -0.490122      0.000019
  N       0.389377      0.490115      0.000020
*
