33
Coordinates from ORCA-job opt_Z-MYH+_azonium_acn E -707.069529411745
  C           0.36401184036855      3.53210536709867     -4.15122767413720
  C           0.18230716438395      2.76999322042288     -3.00649828941634
  C           0.06501338483033      1.38435264657421     -3.11795228368831
  C           0.12918166737362      0.75616589903764     -4.36200967720629
  C           0.31094083825070      1.53252505210846     -5.49551842487887
  C           0.42876680367823      2.91811471364457     -5.39789356187086
  C          -0.43913802098685     -0.75631514283130      0.53562116225099
  C          -0.41935374921166     -1.29757946332393     -0.78377375222145
  C          -0.58317331742226     -2.70288120771767     -0.93159772117269
  H          -0.56565407044934     -3.11050051685556     -1.93365204707760
  C          -0.75912190444051     -3.51941005079466      0.14214178092799
  C          -0.77981046108311     -2.98084389286477      1.46521161913410
  C          -0.61093216077998     -1.56334763243574      1.61435080939638
  H           0.45485430307705      4.60697662681400     -4.06709784561596
  H           0.13005371565756      3.23953288443014     -2.03182214690292
  H           0.36240896793055      1.05224429069187     -6.46394897016499
  H           0.57099575000822      3.51391617703627     -6.28980937088686
  H          -0.88097869061282     -4.57915502678756     -0.01359631151805
  H          -0.61855612142255     -1.12408346228144      2.59907222830016
  H           0.03913824473228     -0.31765745869595     -4.43132408271045
  H          -0.31339812594573      0.30377109128979      0.70967873978153
  N          -0.11654024070356      0.65392333942120     -1.93297958023126
  N          -0.25832446666322     -0.61753632125099     -1.92510361887311
  N          -0.94786952542657     -3.76437497471419      2.53176434817341
  C          -0.95825831997651     -3.20682946782836      3.88521929490286
  H          -1.09923399561994     -4.01637929293078      4.59271660117771
  H          -0.01317477954643     -2.70848218575645      4.10545778729533
  H          -1.77379473118502     -2.49160889549871      4.00298921031505
  C          -1.12159850377641     -5.20872431325208      2.37701952606647
  H          -1.25884195020519     -5.65010157498278      3.35780501975501
  H          -1.99842441940851     -5.42812125737578      1.76611137492562
  H          -0.24269743020957     -5.65542050452315      1.90882645136845
  H          -0.13313938521532      1.19587231413215     -1.07020216519784
