!B3LYP D3BJ def2-TZVP CPCM(ACETONITRILE)
%TDDFT
   NROOTS    20
   TDA       False
   Triplets  False
END
*xyz 0 1
  C           0.34333930923301      3.52579756853114     -4.12320633669750
  C           0.16805192083675      2.74166072798188     -2.99017333255786
  C           0.06618155976490      1.35219233336735     -3.09899325847534
  C           0.14756926123129      0.75284948825730     -4.36338412384604
  C           0.32427787344549      1.54080344176724     -5.48924497181700
  C           0.42192591040485      2.92843350839167     -5.37681864959975
  C          -0.43283105976833     -0.76581413898046      0.47977534561539
  C          -0.42080196159078     -1.31264991502857     -0.81611521332037
  C          -0.59046527533925     -2.69722551577501     -0.95098281477264
  H          -0.58122731473425     -3.12311361516005     -1.94673181722441
  C          -0.76627223070954     -3.51358629279382      0.14468482089204
  C          -0.77946204034938     -2.97232091800846      1.45344394982791
  C          -0.60575329207702     -1.56669571301135      1.58234983829184
  H           0.41928700231150      4.60151553044506     -4.02738363900460
  H           0.10594362044718      3.19105231855672     -2.00708778684840
  H           0.38840597125189      1.07417588872824     -6.46452115260079
  H           0.56017484201537      3.53618932699596     -6.26194423356614
  H          -0.89331560580901     -4.57428156628878     -0.00643234827944
  H          -0.60881069724841     -1.11178201557542      2.56118653545363
  H           0.07381697650482     -0.32171431300911     -4.44826421474304
  H          -0.30353912189229      0.29991698045300      0.60589607970936
  N          -0.10962488394793      0.65342345627827     -1.88418190704463
  N          -0.25216371415401     -0.59196971630043     -1.99432664283755
  N          -0.95085578002060     -3.76168154264676      2.54511152524961
  C          -0.94971090349841     -3.18680313652214      3.88130010518617
  H          -1.09244096443143     -3.98238663928521      4.60635585957728
  H          -0.00228242063856     -2.68686101860895      4.10115618848624
  H          -1.75724309821470     -2.45970027496011      4.00524536254372
  C          -1.12828301928782     -5.19670305542675      2.39193851607171
  H          -1.25876523406197     -5.64252054837219      3.37325156285972
  H          -2.01062859449032     -5.42735793751173      1.78838808369975
  H          -0.25874112518300     -5.65907908648853      1.91554850977115
*
