!B3LYP D3BJ def2-SVP def2/J OPT FREQ

*xyz 0 1
 C                 -0.30013295    3.45566071    0.25937164
 C                 -0.48693180    2.67504507   -0.83457528
 C                 -0.02309905    1.35431690   -0.83958851
 C                  0.63153040    0.84889734    0.28777655
 C                  0.81431617    1.67039094    1.40635890
 C                  0.35750053    2.94792182    1.39191009
 C                 -0.63153040   -0.84889734    0.28777655
 C                  0.02309905   -1.35431690   -0.83958851
 C                  0.48693180   -2.67504507   -0.83457528
 H                  0.98883383   -3.06902738   -1.69351198
 C                  0.30013295   -3.45566071    0.25937164
 C                 -0.35750053   -2.94792182    1.39191009
 C                 -0.81431617   -1.67039094    1.40635890
 H                 -0.65614152    4.46469882    0.25932082
 H                 -0.98883383    3.06902738   -1.69351198
 H                  1.31432661    1.29082694    2.27285803
 H                  0.49915844    3.57272671    2.24891178
 H                  0.65614152   -4.46469882    0.25932082
 H                 -0.49915844   -3.57272671    2.24891178
 H                 -1.31432661   -1.29082694    2.27285803
 H                  0.99038899   -0.15910155    0.29544066
 H                 -0.99038899    0.15910155    0.29544066
 N                 -0.20494346    0.58090803   -1.91579138
 N                  0.20494346   -0.58090803   -1.91579138
*
